* SPICE NETLIST
***************************************

.SUBCKT 16_bit_ripple_carry_adder gnd! B<1> B<3> B<5> B<7> A<0> A<2> A<4> A<6> A<1> A<3> A<5> A<7> B<0> B<2> B<4> B<6> Sout<1> Sout<3> Sout<5>
+ Sout<7> Sout<0> Sout<2> Sout<4> Sout<6> Cin vdd! B<9> B<11> B<13> B<15> A<8> A<10> A<12> A<14> A<9> A<11> A<13> A<15> B<8>
+ B<10> B<12> B<14> Sout<9> Sout<11> Sout<13> Sout<15> Sout<8> Sout<10> Sout<12> Sout<14> Cout
** N=355 EP=52 IP=0 FDC=576
M0 276 B<1> 6 gnd! NMOS_VTL L=5e-08 W=1.8e-07 AD=8.82e-14 AS=8.595e-14 PD=1.34e-06 PS=1.315e-06 $X=1530 $Y=6675 $D=1
M1 277 B<3> 7 gnd! NMOS_VTL L=5e-08 W=1.8e-07 AD=8.82e-14 AS=8.595e-14 PD=1.34e-06 PS=1.315e-06 $X=1530 $Y=14075 $D=1
M2 278 B<5> 8 gnd! NMOS_VTL L=5e-08 W=1.8e-07 AD=8.82e-14 AS=8.595e-14 PD=1.34e-06 PS=1.315e-06 $X=1530 $Y=21475 $D=1
M3 279 B<7> 9 gnd! NMOS_VTL L=5e-08 W=1.8e-07 AD=8.82e-14 AS=8.595e-14 PD=1.34e-06 PS=1.315e-06 $X=1530 $Y=28875 $D=1
M4 131 A<0> gnd! gnd! NMOS_VTL L=5e-08 W=9e-08 AD=5.175e-14 AS=5.175e-14 PD=1.33e-06 PS=1.33e-06 $X=1950 $Y=790 $D=1
M5 132 A<2> gnd! gnd! NMOS_VTL L=5e-08 W=9e-08 AD=5.175e-14 AS=5.175e-14 PD=1.33e-06 PS=1.33e-06 $X=1950 $Y=8190 $D=1
M6 133 A<4> gnd! gnd! NMOS_VTL L=5e-08 W=9e-08 AD=5.175e-14 AS=5.175e-14 PD=1.33e-06 PS=1.33e-06 $X=1950 $Y=15590 $D=1
M7 134 A<6> gnd! gnd! NMOS_VTL L=5e-08 W=9e-08 AD=5.175e-14 AS=5.175e-14 PD=1.33e-06 PS=1.33e-06 $X=1950 $Y=22990 $D=1
M8 gnd! A<1> 276 gnd! NMOS_VTL L=5e-08 W=1.8e-07 AD=7.155e-14 AS=8.82e-14 PD=1.155e-06 PS=1.34e-06 $X=2610 $Y=6675 $D=1
M9 gnd! A<3> 277 gnd! NMOS_VTL L=5e-08 W=1.8e-07 AD=7.155e-14 AS=8.82e-14 PD=1.155e-06 PS=1.34e-06 $X=2610 $Y=14075 $D=1
M10 gnd! A<5> 278 gnd! NMOS_VTL L=5e-08 W=1.8e-07 AD=7.155e-14 AS=8.82e-14 PD=1.155e-06 PS=1.34e-06 $X=2610 $Y=21475 $D=1
M11 gnd! A<7> 279 gnd! NMOS_VTL L=5e-08 W=1.8e-07 AD=7.155e-14 AS=8.82e-14 PD=1.155e-06 PS=1.34e-06 $X=2610 $Y=28875 $D=1
M12 gnd! A<0> 22 gnd! NMOS_VTL L=5e-08 W=1.8e-07 AD=1.2285e-13 AS=4.05e-14 PD=1.725e-06 PS=8.1e-07 $X=5350 $Y=900 $D=1
M13 gnd! A<2> 23 gnd! NMOS_VTL L=5e-08 W=1.8e-07 AD=1.2285e-13 AS=4.05e-14 PD=1.725e-06 PS=8.1e-07 $X=5350 $Y=8300 $D=1
M14 gnd! A<4> 24 gnd! NMOS_VTL L=5e-08 W=1.8e-07 AD=1.2285e-13 AS=4.05e-14 PD=1.725e-06 PS=8.1e-07 $X=5350 $Y=15700 $D=1
M15 gnd! A<6> 25 gnd! NMOS_VTL L=5e-08 W=1.8e-07 AD=1.2285e-13 AS=4.05e-14 PD=1.725e-06 PS=8.1e-07 $X=5350 $Y=23100 $D=1
M16 280 6 20 gnd! NMOS_VTL L=5e-08 W=1.8e-07 AD=8.82e-14 AS=8.595e-14 PD=1.34e-06 PS=1.315e-06 $X=5530 $Y=6675 $D=1
M17 281 7 18 gnd! NMOS_VTL L=5e-08 W=1.8e-07 AD=8.82e-14 AS=8.595e-14 PD=1.34e-06 PS=1.315e-06 $X=5530 $Y=14075 $D=1
M18 282 8 21 gnd! NMOS_VTL L=5e-08 W=1.8e-07 AD=8.82e-14 AS=8.595e-14 PD=1.34e-06 PS=1.315e-06 $X=5530 $Y=21475 $D=1
M19 283 9 19 gnd! NMOS_VTL L=5e-08 W=1.8e-07 AD=8.82e-14 AS=8.595e-14 PD=1.34e-06 PS=1.315e-06 $X=5530 $Y=28875 $D=1
M20 gnd! 135 280 gnd! NMOS_VTL L=5e-08 W=1.8e-07 AD=7.155e-14 AS=8.82e-14 PD=1.155e-06 PS=1.34e-06 $X=6610 $Y=6675 $D=1
M21 gnd! 136 281 gnd! NMOS_VTL L=5e-08 W=1.8e-07 AD=7.155e-14 AS=8.82e-14 PD=1.155e-06 PS=1.34e-06 $X=6610 $Y=14075 $D=1
M22 gnd! 137 282 gnd! NMOS_VTL L=5e-08 W=1.8e-07 AD=7.155e-14 AS=8.82e-14 PD=1.155e-06 PS=1.34e-06 $X=6610 $Y=21475 $D=1
M23 gnd! 138 283 gnd! NMOS_VTL L=5e-08 W=1.8e-07 AD=7.155e-14 AS=8.82e-14 PD=1.155e-06 PS=1.34e-06 $X=6610 $Y=28875 $D=1
M24 284 143 gnd! gnd! NMOS_VTL L=5e-08 W=1.8e-07 AD=9.855e-14 AS=1.2285e-13 PD=1.455e-06 PS=1.725e-06 $X=6815 $Y=900 $D=1
M25 285 144 gnd! gnd! NMOS_VTL L=5e-08 W=1.8e-07 AD=9.855e-14 AS=1.2285e-13 PD=1.455e-06 PS=1.725e-06 $X=6815 $Y=8300 $D=1
M26 286 145 gnd! gnd! NMOS_VTL L=5e-08 W=1.8e-07 AD=9.855e-14 AS=1.2285e-13 PD=1.455e-06 PS=1.725e-06 $X=6815 $Y=15700 $D=1
M27 287 146 gnd! gnd! NMOS_VTL L=5e-08 W=1.8e-07 AD=9.855e-14 AS=1.2285e-13 PD=1.455e-06 PS=1.725e-06 $X=6815 $Y=23100 $D=1
M28 26 131 284 gnd! NMOS_VTL L=5e-08 W=1.8e-07 AD=1.161e-13 AS=9.855e-14 PD=1.65e-06 PS=1.455e-06 $X=8010 $Y=900 $D=1
M29 27 132 285 gnd! NMOS_VTL L=5e-08 W=1.8e-07 AD=1.161e-13 AS=9.855e-14 PD=1.65e-06 PS=1.455e-06 $X=8010 $Y=8300 $D=1
M30 28 133 286 gnd! NMOS_VTL L=5e-08 W=1.8e-07 AD=1.161e-13 AS=9.855e-14 PD=1.65e-06 PS=1.455e-06 $X=8010 $Y=15700 $D=1
M31 29 134 287 gnd! NMOS_VTL L=5e-08 W=1.8e-07 AD=1.161e-13 AS=9.855e-14 PD=1.65e-06 PS=1.455e-06 $X=8010 $Y=23100 $D=1
M32 22 B<0> 26 gnd! NMOS_VTL L=5e-08 W=1.8e-07 AD=1.26e-13 AS=1.161e-13 PD=1.76e-06 PS=1.65e-06 $X=9400 $Y=900 $D=1
M33 23 B<2> 27 gnd! NMOS_VTL L=5e-08 W=1.8e-07 AD=1.26e-13 AS=1.161e-13 PD=1.76e-06 PS=1.65e-06 $X=9400 $Y=8300 $D=1
M34 24 B<4> 28 gnd! NMOS_VTL L=5e-08 W=1.8e-07 AD=1.26e-13 AS=1.161e-13 PD=1.76e-06 PS=1.65e-06 $X=9400 $Y=15700 $D=1
M35 25 B<6> 29 gnd! NMOS_VTL L=5e-08 W=1.8e-07 AD=1.26e-13 AS=1.161e-13 PD=1.76e-06 PS=1.65e-06 $X=9400 $Y=23100 $D=1
M36 288 30 135 gnd! NMOS_VTL L=5e-08 W=1.8e-07 AD=8.82e-14 AS=8.595e-14 PD=1.34e-06 PS=1.315e-06 $X=9530 $Y=6675 $D=1
M37 289 31 136 gnd! NMOS_VTL L=5e-08 W=1.8e-07 AD=8.82e-14 AS=8.595e-14 PD=1.34e-06 PS=1.315e-06 $X=9530 $Y=14075 $D=1
M38 290 32 137 gnd! NMOS_VTL L=5e-08 W=1.8e-07 AD=8.82e-14 AS=8.595e-14 PD=1.34e-06 PS=1.315e-06 $X=9530 $Y=21475 $D=1
M39 291 33 138 gnd! NMOS_VTL L=5e-08 W=1.8e-07 AD=8.82e-14 AS=8.595e-14 PD=1.34e-06 PS=1.315e-06 $X=9530 $Y=28875 $D=1
M40 gnd! 34 288 gnd! NMOS_VTL L=5e-08 W=1.8e-07 AD=7.155e-14 AS=8.82e-14 PD=1.155e-06 PS=1.34e-06 $X=10610 $Y=6675 $D=1
M41 gnd! 35 289 gnd! NMOS_VTL L=5e-08 W=1.8e-07 AD=7.155e-14 AS=8.82e-14 PD=1.155e-06 PS=1.34e-06 $X=10610 $Y=14075 $D=1
M42 gnd! 36 290 gnd! NMOS_VTL L=5e-08 W=1.8e-07 AD=7.155e-14 AS=8.82e-14 PD=1.155e-06 PS=1.34e-06 $X=10610 $Y=21475 $D=1
M43 gnd! 37 291 gnd! NMOS_VTL L=5e-08 W=1.8e-07 AD=7.155e-14 AS=8.82e-14 PD=1.155e-06 PS=1.34e-06 $X=10610 $Y=28875 $D=1
M44 gnd! 30 139 gnd! NMOS_VTL L=5e-08 W=9e-08 AD=5.175e-14 AS=5.175e-14 PD=1.33e-06 PS=1.33e-06 $X=13835 $Y=6755 $D=1
M45 gnd! 31 140 gnd! NMOS_VTL L=5e-08 W=9e-08 AD=5.175e-14 AS=5.175e-14 PD=1.33e-06 PS=1.33e-06 $X=13835 $Y=14155 $D=1
M46 gnd! 32 141 gnd! NMOS_VTL L=5e-08 W=9e-08 AD=5.175e-14 AS=5.175e-14 PD=1.33e-06 PS=1.33e-06 $X=13835 $Y=21555 $D=1
M47 gnd! 33 142 gnd! NMOS_VTL L=5e-08 W=9e-08 AD=5.175e-14 AS=5.175e-14 PD=1.33e-06 PS=1.33e-06 $X=13835 $Y=28955 $D=1
M48 143 B<0> gnd! gnd! NMOS_VTL L=5e-08 W=9e-08 AD=5.175e-14 AS=5.175e-14 PD=1.33e-06 PS=1.33e-06 $X=14565 $Y=795 $D=1
M49 144 B<2> gnd! gnd! NMOS_VTL L=5e-08 W=9e-08 AD=5.175e-14 AS=5.175e-14 PD=1.33e-06 PS=1.33e-06 $X=14565 $Y=8195 $D=1
M50 145 B<4> gnd! gnd! NMOS_VTL L=5e-08 W=9e-08 AD=5.175e-14 AS=5.175e-14 PD=1.33e-06 PS=1.33e-06 $X=14565 $Y=15595 $D=1
M51 146 B<6> gnd! gnd! NMOS_VTL L=5e-08 W=9e-08 AD=5.175e-14 AS=5.175e-14 PD=1.33e-06 PS=1.33e-06 $X=14565 $Y=22995 $D=1
M52 147 26 gnd! gnd! NMOS_VTL L=5e-08 W=9e-08 AD=5.175e-14 AS=5.175e-14 PD=1.33e-06 PS=1.33e-06 $X=18450 $Y=790 $D=1
M53 148 27 gnd! gnd! NMOS_VTL L=5e-08 W=9e-08 AD=5.175e-14 AS=5.175e-14 PD=1.33e-06 PS=1.33e-06 $X=18450 $Y=8190 $D=1
M54 149 28 gnd! gnd! NMOS_VTL L=5e-08 W=9e-08 AD=5.175e-14 AS=5.175e-14 PD=1.33e-06 PS=1.33e-06 $X=18450 $Y=15590 $D=1
M55 150 29 gnd! gnd! NMOS_VTL L=5e-08 W=9e-08 AD=5.175e-14 AS=5.175e-14 PD=1.33e-06 PS=1.33e-06 $X=18450 $Y=22990 $D=1
M56 Sout<1> 30 42 gnd! NMOS_VTL L=5e-08 W=1.8e-07 AD=1.161e-13 AS=1.26e-13 PD=1.65e-06 PS=1.76e-06 $X=19000 $Y=6470 $D=1
M57 Sout<3> 31 43 gnd! NMOS_VTL L=5e-08 W=1.8e-07 AD=1.161e-13 AS=1.26e-13 PD=1.65e-06 PS=1.76e-06 $X=19000 $Y=13870 $D=1
M58 Sout<5> 32 44 gnd! NMOS_VTL L=5e-08 W=1.8e-07 AD=1.161e-13 AS=1.26e-13 PD=1.65e-06 PS=1.76e-06 $X=19000 $Y=21270 $D=1
M59 Sout<7> 33 45 gnd! NMOS_VTL L=5e-08 W=1.8e-07 AD=1.161e-13 AS=1.26e-13 PD=1.65e-06 PS=1.76e-06 $X=19000 $Y=28670 $D=1
M60 292 151 Sout<1> gnd! NMOS_VTL L=5e-08 W=1.8e-07 AD=9.855e-14 AS=1.161e-13 PD=1.455e-06 PS=1.65e-06 $X=20390 $Y=6470 $D=1
M61 293 152 Sout<3> gnd! NMOS_VTL L=5e-08 W=1.8e-07 AD=9.855e-14 AS=1.161e-13 PD=1.455e-06 PS=1.65e-06 $X=20390 $Y=13870 $D=1
M62 294 153 Sout<5> gnd! NMOS_VTL L=5e-08 W=1.8e-07 AD=9.855e-14 AS=1.161e-13 PD=1.455e-06 PS=1.65e-06 $X=20390 $Y=21270 $D=1
M63 295 154 Sout<7> gnd! NMOS_VTL L=5e-08 W=1.8e-07 AD=9.855e-14 AS=1.161e-13 PD=1.455e-06 PS=1.65e-06 $X=20390 $Y=28670 $D=1
M64 gnd! 139 292 gnd! NMOS_VTL L=5e-08 W=1.8e-07 AD=1.2285e-13 AS=9.855e-14 PD=1.725e-06 PS=1.455e-06 $X=21585 $Y=6470 $D=1
M65 gnd! 140 293 gnd! NMOS_VTL L=5e-08 W=1.8e-07 AD=1.2285e-13 AS=9.855e-14 PD=1.725e-06 PS=1.455e-06 $X=21585 $Y=13870 $D=1
M66 gnd! 141 294 gnd! NMOS_VTL L=5e-08 W=1.8e-07 AD=1.2285e-13 AS=9.855e-14 PD=1.725e-06 PS=1.455e-06 $X=21585 $Y=21270 $D=1
M67 gnd! 142 295 gnd! NMOS_VTL L=5e-08 W=1.8e-07 AD=1.2285e-13 AS=9.855e-14 PD=1.725e-06 PS=1.455e-06 $X=21585 $Y=28670 $D=1
M68 gnd! 26 50 gnd! NMOS_VTL L=5e-08 W=1.8e-07 AD=1.2285e-13 AS=4.05e-14 PD=1.725e-06 PS=8.1e-07 $X=21850 $Y=900 $D=1
M69 gnd! 27 51 gnd! NMOS_VTL L=5e-08 W=1.8e-07 AD=1.2285e-13 AS=4.05e-14 PD=1.725e-06 PS=8.1e-07 $X=21850 $Y=8300 $D=1
M70 gnd! 28 52 gnd! NMOS_VTL L=5e-08 W=1.8e-07 AD=1.2285e-13 AS=4.05e-14 PD=1.725e-06 PS=8.1e-07 $X=21850 $Y=15700 $D=1
M71 gnd! 29 53 gnd! NMOS_VTL L=5e-08 W=1.8e-07 AD=1.2285e-13 AS=4.05e-14 PD=1.725e-06 PS=8.1e-07 $X=21850 $Y=23100 $D=1
M72 42 34 gnd! gnd! NMOS_VTL L=5e-08 W=1.8e-07 AD=4.05e-14 AS=1.2285e-13 PD=8.1e-07 PS=1.725e-06 $X=23050 $Y=6470 $D=1
M73 43 35 gnd! gnd! NMOS_VTL L=5e-08 W=1.8e-07 AD=4.05e-14 AS=1.2285e-13 PD=8.1e-07 PS=1.725e-06 $X=23050 $Y=13870 $D=1
M74 44 36 gnd! gnd! NMOS_VTL L=5e-08 W=1.8e-07 AD=4.05e-14 AS=1.2285e-13 PD=8.1e-07 PS=1.725e-06 $X=23050 $Y=21270 $D=1
M75 45 37 gnd! gnd! NMOS_VTL L=5e-08 W=1.8e-07 AD=4.05e-14 AS=1.2285e-13 PD=8.1e-07 PS=1.725e-06 $X=23050 $Y=28670 $D=1
M76 296 159 gnd! gnd! NMOS_VTL L=5e-08 W=1.8e-07 AD=9.855e-14 AS=1.2285e-13 PD=1.455e-06 PS=1.725e-06 $X=23315 $Y=900 $D=1
M77 297 160 gnd! gnd! NMOS_VTL L=5e-08 W=1.8e-07 AD=9.855e-14 AS=1.2285e-13 PD=1.455e-06 PS=1.725e-06 $X=23315 $Y=8300 $D=1
M78 298 161 gnd! gnd! NMOS_VTL L=5e-08 W=1.8e-07 AD=9.855e-14 AS=1.2285e-13 PD=1.455e-06 PS=1.725e-06 $X=23315 $Y=15700 $D=1
M79 299 162 gnd! gnd! NMOS_VTL L=5e-08 W=1.8e-07 AD=9.855e-14 AS=1.2285e-13 PD=1.455e-06 PS=1.725e-06 $X=23315 $Y=23100 $D=1
M80 Sout<0> 147 296 gnd! NMOS_VTL L=5e-08 W=1.8e-07 AD=1.161e-13 AS=9.855e-14 PD=1.65e-06 PS=1.455e-06 $X=24510 $Y=900 $D=1
M81 Sout<2> 148 297 gnd! NMOS_VTL L=5e-08 W=1.8e-07 AD=1.161e-13 AS=9.855e-14 PD=1.65e-06 PS=1.455e-06 $X=24510 $Y=8300 $D=1
M82 Sout<4> 149 298 gnd! NMOS_VTL L=5e-08 W=1.8e-07 AD=1.161e-13 AS=9.855e-14 PD=1.65e-06 PS=1.455e-06 $X=24510 $Y=15700 $D=1
M83 Sout<6> 150 299 gnd! NMOS_VTL L=5e-08 W=1.8e-07 AD=1.161e-13 AS=9.855e-14 PD=1.65e-06 PS=1.455e-06 $X=24510 $Y=23100 $D=1
M84 50 Cin Sout<0> gnd! NMOS_VTL L=5e-08 W=1.8e-07 AD=1.26e-13 AS=1.161e-13 PD=1.76e-06 PS=1.65e-06 $X=25900 $Y=900 $D=1
M85 51 20 Sout<2> gnd! NMOS_VTL L=5e-08 W=1.8e-07 AD=1.26e-13 AS=1.161e-13 PD=1.76e-06 PS=1.65e-06 $X=25900 $Y=8300 $D=1
M86 52 18 Sout<4> gnd! NMOS_VTL L=5e-08 W=1.8e-07 AD=1.26e-13 AS=1.161e-13 PD=1.76e-06 PS=1.65e-06 $X=25900 $Y=15700 $D=1
M87 53 21 Sout<6> gnd! NMOS_VTL L=5e-08 W=1.8e-07 AD=1.26e-13 AS=1.161e-13 PD=1.76e-06 PS=1.65e-06 $X=25900 $Y=23100 $D=1
M88 gnd! 34 151 gnd! NMOS_VTL L=5e-08 W=9e-08 AD=5.175e-14 AS=5.175e-14 PD=1.33e-06 PS=1.33e-06 $X=26450 $Y=6760 $D=1
M89 gnd! 35 152 gnd! NMOS_VTL L=5e-08 W=9e-08 AD=5.175e-14 AS=5.175e-14 PD=1.33e-06 PS=1.33e-06 $X=26450 $Y=14160 $D=1
M90 gnd! 36 153 gnd! NMOS_VTL L=5e-08 W=9e-08 AD=5.175e-14 AS=5.175e-14 PD=1.33e-06 PS=1.33e-06 $X=26450 $Y=21560 $D=1
M91 gnd! 37 154 gnd! NMOS_VTL L=5e-08 W=9e-08 AD=5.175e-14 AS=5.175e-14 PD=1.33e-06 PS=1.33e-06 $X=26450 $Y=28960 $D=1
M92 gnd! B<1> 155 gnd! NMOS_VTL L=5e-08 W=9e-08 AD=5.175e-14 AS=5.175e-14 PD=1.33e-06 PS=1.33e-06 $X=30335 $Y=6755 $D=1
M93 gnd! B<3> 156 gnd! NMOS_VTL L=5e-08 W=9e-08 AD=5.175e-14 AS=5.175e-14 PD=1.33e-06 PS=1.33e-06 $X=30335 $Y=14155 $D=1
M94 gnd! B<5> 157 gnd! NMOS_VTL L=5e-08 W=9e-08 AD=5.175e-14 AS=5.175e-14 PD=1.33e-06 PS=1.33e-06 $X=30335 $Y=21555 $D=1
M95 gnd! B<7> 158 gnd! NMOS_VTL L=5e-08 W=9e-08 AD=5.175e-14 AS=5.175e-14 PD=1.33e-06 PS=1.33e-06 $X=30335 $Y=28955 $D=1
M96 159 Cin gnd! gnd! NMOS_VTL L=5e-08 W=9e-08 AD=5.175e-14 AS=5.175e-14 PD=1.33e-06 PS=1.33e-06 $X=31065 $Y=795 $D=1
M97 160 20 gnd! gnd! NMOS_VTL L=5e-08 W=9e-08 AD=5.175e-14 AS=5.175e-14 PD=1.33e-06 PS=1.33e-06 $X=31065 $Y=8195 $D=1
M98 161 18 gnd! gnd! NMOS_VTL L=5e-08 W=9e-08 AD=5.175e-14 AS=5.175e-14 PD=1.33e-06 PS=1.33e-06 $X=31065 $Y=15595 $D=1
M99 162 21 gnd! gnd! NMOS_VTL L=5e-08 W=9e-08 AD=5.175e-14 AS=5.175e-14 PD=1.33e-06 PS=1.33e-06 $X=31065 $Y=22995 $D=1
M100 300 26 gnd! gnd! NMOS_VTL L=5e-08 W=1.8e-07 AD=8.82e-14 AS=7.155e-14 PD=1.34e-06 PS=1.155e-06 $X=34290 $Y=695 $D=1
M101 301 27 gnd! gnd! NMOS_VTL L=5e-08 W=1.8e-07 AD=8.82e-14 AS=7.155e-14 PD=1.34e-06 PS=1.155e-06 $X=34290 $Y=8095 $D=1
M102 302 28 gnd! gnd! NMOS_VTL L=5e-08 W=1.8e-07 AD=8.82e-14 AS=7.155e-14 PD=1.34e-06 PS=1.155e-06 $X=34290 $Y=15495 $D=1
M103 303 29 gnd! gnd! NMOS_VTL L=5e-08 W=1.8e-07 AD=8.82e-14 AS=7.155e-14 PD=1.34e-06 PS=1.155e-06 $X=34290 $Y=22895 $D=1
M104 163 Cin 300 gnd! NMOS_VTL L=5e-08 W=1.8e-07 AD=8.595e-14 AS=8.82e-14 PD=1.315e-06 PS=1.34e-06 $X=35370 $Y=695 $D=1
M105 164 20 301 gnd! NMOS_VTL L=5e-08 W=1.8e-07 AD=8.595e-14 AS=8.82e-14 PD=1.315e-06 PS=1.34e-06 $X=35370 $Y=8095 $D=1
M106 165 18 302 gnd! NMOS_VTL L=5e-08 W=1.8e-07 AD=8.595e-14 AS=8.82e-14 PD=1.315e-06 PS=1.34e-06 $X=35370 $Y=15495 $D=1
M107 166 21 303 gnd! NMOS_VTL L=5e-08 W=1.8e-07 AD=8.595e-14 AS=8.82e-14 PD=1.315e-06 PS=1.34e-06 $X=35370 $Y=22895 $D=1
M108 34 B<1> 59 gnd! NMOS_VTL L=5e-08 W=1.8e-07 AD=1.161e-13 AS=1.26e-13 PD=1.65e-06 PS=1.76e-06 $X=35500 $Y=6470 $D=1
M109 35 B<3> 60 gnd! NMOS_VTL L=5e-08 W=1.8e-07 AD=1.161e-13 AS=1.26e-13 PD=1.65e-06 PS=1.76e-06 $X=35500 $Y=13870 $D=1
M110 36 B<5> 61 gnd! NMOS_VTL L=5e-08 W=1.8e-07 AD=1.161e-13 AS=1.26e-13 PD=1.65e-06 PS=1.76e-06 $X=35500 $Y=21270 $D=1
M111 37 B<7> 62 gnd! NMOS_VTL L=5e-08 W=1.8e-07 AD=1.161e-13 AS=1.26e-13 PD=1.65e-06 PS=1.76e-06 $X=35500 $Y=28670 $D=1
M112 304 167 34 gnd! NMOS_VTL L=5e-08 W=1.8e-07 AD=9.855e-14 AS=1.161e-13 PD=1.455e-06 PS=1.65e-06 $X=36890 $Y=6470 $D=1
M113 305 168 35 gnd! NMOS_VTL L=5e-08 W=1.8e-07 AD=9.855e-14 AS=1.161e-13 PD=1.455e-06 PS=1.65e-06 $X=36890 $Y=13870 $D=1
M114 306 169 36 gnd! NMOS_VTL L=5e-08 W=1.8e-07 AD=9.855e-14 AS=1.161e-13 PD=1.455e-06 PS=1.65e-06 $X=36890 $Y=21270 $D=1
M115 307 170 37 gnd! NMOS_VTL L=5e-08 W=1.8e-07 AD=9.855e-14 AS=1.161e-13 PD=1.455e-06 PS=1.65e-06 $X=36890 $Y=28670 $D=1
M116 gnd! 155 304 gnd! NMOS_VTL L=5e-08 W=1.8e-07 AD=1.2285e-13 AS=9.855e-14 PD=1.725e-06 PS=1.455e-06 $X=38085 $Y=6470 $D=1
M117 gnd! 156 305 gnd! NMOS_VTL L=5e-08 W=1.8e-07 AD=1.2285e-13 AS=9.855e-14 PD=1.725e-06 PS=1.455e-06 $X=38085 $Y=13870 $D=1
M118 gnd! 157 306 gnd! NMOS_VTL L=5e-08 W=1.8e-07 AD=1.2285e-13 AS=9.855e-14 PD=1.725e-06 PS=1.455e-06 $X=38085 $Y=21270 $D=1
M119 gnd! 158 307 gnd! NMOS_VTL L=5e-08 W=1.8e-07 AD=1.2285e-13 AS=9.855e-14 PD=1.725e-06 PS=1.455e-06 $X=38085 $Y=28670 $D=1
M120 308 163 gnd! gnd! NMOS_VTL L=5e-08 W=1.8e-07 AD=8.82e-14 AS=7.155e-14 PD=1.34e-06 PS=1.155e-06 $X=38290 $Y=695 $D=1
M121 309 164 gnd! gnd! NMOS_VTL L=5e-08 W=1.8e-07 AD=8.82e-14 AS=7.155e-14 PD=1.34e-06 PS=1.155e-06 $X=38290 $Y=8095 $D=1
M122 310 165 gnd! gnd! NMOS_VTL L=5e-08 W=1.8e-07 AD=8.82e-14 AS=7.155e-14 PD=1.34e-06 PS=1.155e-06 $X=38290 $Y=15495 $D=1
M123 311 166 gnd! gnd! NMOS_VTL L=5e-08 W=1.8e-07 AD=8.82e-14 AS=7.155e-14 PD=1.34e-06 PS=1.155e-06 $X=38290 $Y=22895 $D=1
M124 30 63 308 gnd! NMOS_VTL L=5e-08 W=1.8e-07 AD=8.595e-14 AS=8.82e-14 PD=1.315e-06 PS=1.34e-06 $X=39370 $Y=695 $D=1
M125 31 64 309 gnd! NMOS_VTL L=5e-08 W=1.8e-07 AD=8.595e-14 AS=8.82e-14 PD=1.315e-06 PS=1.34e-06 $X=39370 $Y=8095 $D=1
M126 32 65 310 gnd! NMOS_VTL L=5e-08 W=1.8e-07 AD=8.595e-14 AS=8.82e-14 PD=1.315e-06 PS=1.34e-06 $X=39370 $Y=15495 $D=1
M127 33 66 311 gnd! NMOS_VTL L=5e-08 W=1.8e-07 AD=8.595e-14 AS=8.82e-14 PD=1.315e-06 PS=1.34e-06 $X=39370 $Y=22895 $D=1
M128 59 A<1> gnd! gnd! NMOS_VTL L=5e-08 W=1.8e-07 AD=4.05e-14 AS=1.2285e-13 PD=8.1e-07 PS=1.725e-06 $X=39550 $Y=6470 $D=1
M129 60 A<3> gnd! gnd! NMOS_VTL L=5e-08 W=1.8e-07 AD=4.05e-14 AS=1.2285e-13 PD=8.1e-07 PS=1.725e-06 $X=39550 $Y=13870 $D=1
M130 61 A<5> gnd! gnd! NMOS_VTL L=5e-08 W=1.8e-07 AD=4.05e-14 AS=1.2285e-13 PD=8.1e-07 PS=1.725e-06 $X=39550 $Y=21270 $D=1
M131 62 A<7> gnd! gnd! NMOS_VTL L=5e-08 W=1.8e-07 AD=4.05e-14 AS=1.2285e-13 PD=8.1e-07 PS=1.725e-06 $X=39550 $Y=28670 $D=1
M132 312 A<0> gnd! gnd! NMOS_VTL L=5e-08 W=1.8e-07 AD=8.82e-14 AS=7.155e-14 PD=1.34e-06 PS=1.155e-06 $X=42290 $Y=695 $D=1
M133 313 A<2> gnd! gnd! NMOS_VTL L=5e-08 W=1.8e-07 AD=8.82e-14 AS=7.155e-14 PD=1.34e-06 PS=1.155e-06 $X=42290 $Y=8095 $D=1
M134 314 A<4> gnd! gnd! NMOS_VTL L=5e-08 W=1.8e-07 AD=8.82e-14 AS=7.155e-14 PD=1.34e-06 PS=1.155e-06 $X=42290 $Y=15495 $D=1
M135 315 A<6> gnd! gnd! NMOS_VTL L=5e-08 W=1.8e-07 AD=8.82e-14 AS=7.155e-14 PD=1.34e-06 PS=1.155e-06 $X=42290 $Y=22895 $D=1
M136 gnd! A<1> 167 gnd! NMOS_VTL L=5e-08 W=9e-08 AD=5.175e-14 AS=5.175e-14 PD=1.33e-06 PS=1.33e-06 $X=42950 $Y=6760 $D=1
M137 gnd! A<3> 168 gnd! NMOS_VTL L=5e-08 W=9e-08 AD=5.175e-14 AS=5.175e-14 PD=1.33e-06 PS=1.33e-06 $X=42950 $Y=14160 $D=1
M138 gnd! A<5> 169 gnd! NMOS_VTL L=5e-08 W=9e-08 AD=5.175e-14 AS=5.175e-14 PD=1.33e-06 PS=1.33e-06 $X=42950 $Y=21560 $D=1
M139 gnd! A<7> 170 gnd! NMOS_VTL L=5e-08 W=9e-08 AD=5.175e-14 AS=5.175e-14 PD=1.33e-06 PS=1.33e-06 $X=42950 $Y=28960 $D=1
M140 63 B<0> 312 gnd! NMOS_VTL L=5e-08 W=1.8e-07 AD=8.595e-14 AS=8.82e-14 PD=1.315e-06 PS=1.34e-06 $X=43370 $Y=695 $D=1
M141 64 B<2> 313 gnd! NMOS_VTL L=5e-08 W=1.8e-07 AD=8.595e-14 AS=8.82e-14 PD=1.315e-06 PS=1.34e-06 $X=43370 $Y=8095 $D=1
M142 65 B<4> 314 gnd! NMOS_VTL L=5e-08 W=1.8e-07 AD=8.595e-14 AS=8.82e-14 PD=1.315e-06 PS=1.34e-06 $X=43370 $Y=15495 $D=1
M143 66 B<6> 315 gnd! NMOS_VTL L=5e-08 W=1.8e-07 AD=8.595e-14 AS=8.82e-14 PD=1.315e-06 PS=1.34e-06 $X=43370 $Y=22895 $D=1
M144 316 B<9> 72 gnd! NMOS_VTL L=5e-08 W=1.8e-07 AD=8.82e-14 AS=8.595e-14 PD=1.34e-06 PS=1.315e-06 $X=46530 $Y=6675 $D=1
M145 317 B<11> 73 gnd! NMOS_VTL L=5e-08 W=1.8e-07 AD=8.82e-14 AS=8.595e-14 PD=1.34e-06 PS=1.315e-06 $X=46530 $Y=14075 $D=1
M146 318 B<13> 74 gnd! NMOS_VTL L=5e-08 W=1.8e-07 AD=8.82e-14 AS=8.595e-14 PD=1.34e-06 PS=1.315e-06 $X=46530 $Y=21475 $D=1
M147 319 B<15> 75 gnd! NMOS_VTL L=5e-08 W=1.8e-07 AD=8.82e-14 AS=8.595e-14 PD=1.34e-06 PS=1.315e-06 $X=46530 $Y=28875 $D=1
M148 171 A<8> gnd! gnd! NMOS_VTL L=5e-08 W=9e-08 AD=5.175e-14 AS=5.175e-14 PD=1.33e-06 PS=1.33e-06 $X=46950 $Y=790 $D=1
M149 172 A<10> gnd! gnd! NMOS_VTL L=5e-08 W=9e-08 AD=5.175e-14 AS=5.175e-14 PD=1.33e-06 PS=1.33e-06 $X=46950 $Y=8190 $D=1
M150 173 A<12> gnd! gnd! NMOS_VTL L=5e-08 W=9e-08 AD=5.175e-14 AS=5.175e-14 PD=1.33e-06 PS=1.33e-06 $X=46950 $Y=15590 $D=1
M151 174 A<14> gnd! gnd! NMOS_VTL L=5e-08 W=9e-08 AD=5.175e-14 AS=5.175e-14 PD=1.33e-06 PS=1.33e-06 $X=46950 $Y=22990 $D=1
M152 gnd! A<9> 316 gnd! NMOS_VTL L=5e-08 W=1.8e-07 AD=7.155e-14 AS=8.82e-14 PD=1.155e-06 PS=1.34e-06 $X=47610 $Y=6675 $D=1
M153 gnd! A<11> 317 gnd! NMOS_VTL L=5e-08 W=1.8e-07 AD=7.155e-14 AS=8.82e-14 PD=1.155e-06 PS=1.34e-06 $X=47610 $Y=14075 $D=1
M154 gnd! A<13> 318 gnd! NMOS_VTL L=5e-08 W=1.8e-07 AD=7.155e-14 AS=8.82e-14 PD=1.155e-06 PS=1.34e-06 $X=47610 $Y=21475 $D=1
M155 gnd! A<15> 319 gnd! NMOS_VTL L=5e-08 W=1.8e-07 AD=7.155e-14 AS=8.82e-14 PD=1.155e-06 PS=1.34e-06 $X=47610 $Y=28875 $D=1
M156 gnd! A<8> 87 gnd! NMOS_VTL L=5e-08 W=1.8e-07 AD=1.2285e-13 AS=4.05e-14 PD=1.725e-06 PS=8.1e-07 $X=50350 $Y=900 $D=1
M157 gnd! A<10> 88 gnd! NMOS_VTL L=5e-08 W=1.8e-07 AD=1.2285e-13 AS=4.05e-14 PD=1.725e-06 PS=8.1e-07 $X=50350 $Y=8300 $D=1
M158 gnd! A<12> 89 gnd! NMOS_VTL L=5e-08 W=1.8e-07 AD=1.2285e-13 AS=4.05e-14 PD=1.725e-06 PS=8.1e-07 $X=50350 $Y=15700 $D=1
M159 gnd! A<14> 90 gnd! NMOS_VTL L=5e-08 W=1.8e-07 AD=1.2285e-13 AS=4.05e-14 PD=1.725e-06 PS=8.1e-07 $X=50350 $Y=23100 $D=1
M160 320 72 85 gnd! NMOS_VTL L=5e-08 W=1.8e-07 AD=8.82e-14 AS=8.595e-14 PD=1.34e-06 PS=1.315e-06 $X=50530 $Y=6675 $D=1
M161 321 73 84 gnd! NMOS_VTL L=5e-08 W=1.8e-07 AD=8.82e-14 AS=8.595e-14 PD=1.34e-06 PS=1.315e-06 $X=50530 $Y=14075 $D=1
M162 322 74 86 gnd! NMOS_VTL L=5e-08 W=1.8e-07 AD=8.82e-14 AS=8.595e-14 PD=1.34e-06 PS=1.315e-06 $X=50530 $Y=21475 $D=1
M163 323 75 Cout gnd! NMOS_VTL L=5e-08 W=1.8e-07 AD=8.82e-14 AS=8.595e-14 PD=1.34e-06 PS=1.315e-06 $X=50530 $Y=28875 $D=1
M164 gnd! 176 320 gnd! NMOS_VTL L=5e-08 W=1.8e-07 AD=7.155e-14 AS=8.82e-14 PD=1.155e-06 PS=1.34e-06 $X=51610 $Y=6675 $D=1
M165 gnd! 177 321 gnd! NMOS_VTL L=5e-08 W=1.8e-07 AD=7.155e-14 AS=8.82e-14 PD=1.155e-06 PS=1.34e-06 $X=51610 $Y=14075 $D=1
M166 gnd! 178 322 gnd! NMOS_VTL L=5e-08 W=1.8e-07 AD=7.155e-14 AS=8.82e-14 PD=1.155e-06 PS=1.34e-06 $X=51610 $Y=21475 $D=1
M167 gnd! 179 323 gnd! NMOS_VTL L=5e-08 W=1.8e-07 AD=7.155e-14 AS=8.82e-14 PD=1.155e-06 PS=1.34e-06 $X=51610 $Y=28875 $D=1
M168 324 184 gnd! gnd! NMOS_VTL L=5e-08 W=1.8e-07 AD=9.855e-14 AS=1.2285e-13 PD=1.455e-06 PS=1.725e-06 $X=51815 $Y=900 $D=1
M169 325 185 gnd! gnd! NMOS_VTL L=5e-08 W=1.8e-07 AD=9.855e-14 AS=1.2285e-13 PD=1.455e-06 PS=1.725e-06 $X=51815 $Y=8300 $D=1
M170 326 186 gnd! gnd! NMOS_VTL L=5e-08 W=1.8e-07 AD=9.855e-14 AS=1.2285e-13 PD=1.455e-06 PS=1.725e-06 $X=51815 $Y=15700 $D=1
M171 327 187 gnd! gnd! NMOS_VTL L=5e-08 W=1.8e-07 AD=9.855e-14 AS=1.2285e-13 PD=1.455e-06 PS=1.725e-06 $X=51815 $Y=23100 $D=1
M172 91 171 324 gnd! NMOS_VTL L=5e-08 W=1.8e-07 AD=1.161e-13 AS=9.855e-14 PD=1.65e-06 PS=1.455e-06 $X=53010 $Y=900 $D=1
M173 92 172 325 gnd! NMOS_VTL L=5e-08 W=1.8e-07 AD=1.161e-13 AS=9.855e-14 PD=1.65e-06 PS=1.455e-06 $X=53010 $Y=8300 $D=1
M174 93 173 326 gnd! NMOS_VTL L=5e-08 W=1.8e-07 AD=1.161e-13 AS=9.855e-14 PD=1.65e-06 PS=1.455e-06 $X=53010 $Y=15700 $D=1
M175 94 174 327 gnd! NMOS_VTL L=5e-08 W=1.8e-07 AD=1.161e-13 AS=9.855e-14 PD=1.65e-06 PS=1.455e-06 $X=53010 $Y=23100 $D=1
M176 87 B<8> 91 gnd! NMOS_VTL L=5e-08 W=1.8e-07 AD=1.26e-13 AS=1.161e-13 PD=1.76e-06 PS=1.65e-06 $X=54400 $Y=900 $D=1
M177 88 B<10> 92 gnd! NMOS_VTL L=5e-08 W=1.8e-07 AD=1.26e-13 AS=1.161e-13 PD=1.76e-06 PS=1.65e-06 $X=54400 $Y=8300 $D=1
M178 89 B<12> 93 gnd! NMOS_VTL L=5e-08 W=1.8e-07 AD=1.26e-13 AS=1.161e-13 PD=1.76e-06 PS=1.65e-06 $X=54400 $Y=15700 $D=1
M179 90 B<14> 94 gnd! NMOS_VTL L=5e-08 W=1.8e-07 AD=1.26e-13 AS=1.161e-13 PD=1.76e-06 PS=1.65e-06 $X=54400 $Y=23100 $D=1
M180 328 95 176 gnd! NMOS_VTL L=5e-08 W=1.8e-07 AD=8.82e-14 AS=8.595e-14 PD=1.34e-06 PS=1.315e-06 $X=54530 $Y=6675 $D=1
M181 329 96 177 gnd! NMOS_VTL L=5e-08 W=1.8e-07 AD=8.82e-14 AS=8.595e-14 PD=1.34e-06 PS=1.315e-06 $X=54530 $Y=14075 $D=1
M182 330 97 178 gnd! NMOS_VTL L=5e-08 W=1.8e-07 AD=8.82e-14 AS=8.595e-14 PD=1.34e-06 PS=1.315e-06 $X=54530 $Y=21475 $D=1
M183 331 98 179 gnd! NMOS_VTL L=5e-08 W=1.8e-07 AD=8.82e-14 AS=8.595e-14 PD=1.34e-06 PS=1.315e-06 $X=54530 $Y=28875 $D=1
M184 gnd! 99 328 gnd! NMOS_VTL L=5e-08 W=1.8e-07 AD=7.155e-14 AS=8.82e-14 PD=1.155e-06 PS=1.34e-06 $X=55610 $Y=6675 $D=1
M185 gnd! 100 329 gnd! NMOS_VTL L=5e-08 W=1.8e-07 AD=7.155e-14 AS=8.82e-14 PD=1.155e-06 PS=1.34e-06 $X=55610 $Y=14075 $D=1
M186 gnd! 101 330 gnd! NMOS_VTL L=5e-08 W=1.8e-07 AD=7.155e-14 AS=8.82e-14 PD=1.155e-06 PS=1.34e-06 $X=55610 $Y=21475 $D=1
M187 gnd! 102 331 gnd! NMOS_VTL L=5e-08 W=1.8e-07 AD=7.155e-14 AS=8.82e-14 PD=1.155e-06 PS=1.34e-06 $X=55610 $Y=28875 $D=1
M188 gnd! 95 180 gnd! NMOS_VTL L=5e-08 W=9e-08 AD=5.175e-14 AS=5.175e-14 PD=1.33e-06 PS=1.33e-06 $X=58835 $Y=6755 $D=1
M189 gnd! 96 181 gnd! NMOS_VTL L=5e-08 W=9e-08 AD=5.175e-14 AS=5.175e-14 PD=1.33e-06 PS=1.33e-06 $X=58835 $Y=14155 $D=1
M190 gnd! 97 182 gnd! NMOS_VTL L=5e-08 W=9e-08 AD=5.175e-14 AS=5.175e-14 PD=1.33e-06 PS=1.33e-06 $X=58835 $Y=21555 $D=1
M191 gnd! 98 183 gnd! NMOS_VTL L=5e-08 W=9e-08 AD=5.175e-14 AS=5.175e-14 PD=1.33e-06 PS=1.33e-06 $X=58835 $Y=28955 $D=1
M192 184 B<8> gnd! gnd! NMOS_VTL L=5e-08 W=9e-08 AD=5.175e-14 AS=5.175e-14 PD=1.33e-06 PS=1.33e-06 $X=59565 $Y=795 $D=1
M193 185 B<10> gnd! gnd! NMOS_VTL L=5e-08 W=9e-08 AD=5.175e-14 AS=5.175e-14 PD=1.33e-06 PS=1.33e-06 $X=59565 $Y=8195 $D=1
M194 186 B<12> gnd! gnd! NMOS_VTL L=5e-08 W=9e-08 AD=5.175e-14 AS=5.175e-14 PD=1.33e-06 PS=1.33e-06 $X=59565 $Y=15595 $D=1
M195 187 B<14> gnd! gnd! NMOS_VTL L=5e-08 W=9e-08 AD=5.175e-14 AS=5.175e-14 PD=1.33e-06 PS=1.33e-06 $X=59565 $Y=22995 $D=1
M196 188 91 gnd! gnd! NMOS_VTL L=5e-08 W=9e-08 AD=5.175e-14 AS=5.175e-14 PD=1.33e-06 PS=1.33e-06 $X=63450 $Y=790 $D=1
M197 189 92 gnd! gnd! NMOS_VTL L=5e-08 W=9e-08 AD=5.175e-14 AS=5.175e-14 PD=1.33e-06 PS=1.33e-06 $X=63450 $Y=8190 $D=1
M198 190 93 gnd! gnd! NMOS_VTL L=5e-08 W=9e-08 AD=5.175e-14 AS=5.175e-14 PD=1.33e-06 PS=1.33e-06 $X=63450 $Y=15590 $D=1
M199 191 94 gnd! gnd! NMOS_VTL L=5e-08 W=9e-08 AD=5.175e-14 AS=5.175e-14 PD=1.33e-06 PS=1.33e-06 $X=63450 $Y=22990 $D=1
M200 Sout<9> 95 107 gnd! NMOS_VTL L=5e-08 W=1.8e-07 AD=1.161e-13 AS=1.26e-13 PD=1.65e-06 PS=1.76e-06 $X=64000 $Y=6470 $D=1
M201 Sout<11> 96 108 gnd! NMOS_VTL L=5e-08 W=1.8e-07 AD=1.161e-13 AS=1.26e-13 PD=1.65e-06 PS=1.76e-06 $X=64000 $Y=13870 $D=1
M202 Sout<13> 97 109 gnd! NMOS_VTL L=5e-08 W=1.8e-07 AD=1.161e-13 AS=1.26e-13 PD=1.65e-06 PS=1.76e-06 $X=64000 $Y=21270 $D=1
M203 Sout<15> 98 110 gnd! NMOS_VTL L=5e-08 W=1.8e-07 AD=1.161e-13 AS=1.26e-13 PD=1.65e-06 PS=1.76e-06 $X=64000 $Y=28670 $D=1
M204 332 192 Sout<9> gnd! NMOS_VTL L=5e-08 W=1.8e-07 AD=9.855e-14 AS=1.161e-13 PD=1.455e-06 PS=1.65e-06 $X=65390 $Y=6470 $D=1
M205 333 193 Sout<11> gnd! NMOS_VTL L=5e-08 W=1.8e-07 AD=9.855e-14 AS=1.161e-13 PD=1.455e-06 PS=1.65e-06 $X=65390 $Y=13870 $D=1
M206 334 194 Sout<13> gnd! NMOS_VTL L=5e-08 W=1.8e-07 AD=9.855e-14 AS=1.161e-13 PD=1.455e-06 PS=1.65e-06 $X=65390 $Y=21270 $D=1
M207 335 195 Sout<15> gnd! NMOS_VTL L=5e-08 W=1.8e-07 AD=9.855e-14 AS=1.161e-13 PD=1.455e-06 PS=1.65e-06 $X=65390 $Y=28670 $D=1
M208 gnd! 180 332 gnd! NMOS_VTL L=5e-08 W=1.8e-07 AD=1.2285e-13 AS=9.855e-14 PD=1.725e-06 PS=1.455e-06 $X=66585 $Y=6470 $D=1
M209 gnd! 181 333 gnd! NMOS_VTL L=5e-08 W=1.8e-07 AD=1.2285e-13 AS=9.855e-14 PD=1.725e-06 PS=1.455e-06 $X=66585 $Y=13870 $D=1
M210 gnd! 182 334 gnd! NMOS_VTL L=5e-08 W=1.8e-07 AD=1.2285e-13 AS=9.855e-14 PD=1.725e-06 PS=1.455e-06 $X=66585 $Y=21270 $D=1
M211 gnd! 183 335 gnd! NMOS_VTL L=5e-08 W=1.8e-07 AD=1.2285e-13 AS=9.855e-14 PD=1.725e-06 PS=1.455e-06 $X=66585 $Y=28670 $D=1
M212 gnd! 91 115 gnd! NMOS_VTL L=5e-08 W=1.8e-07 AD=1.2285e-13 AS=4.05e-14 PD=1.725e-06 PS=8.1e-07 $X=66850 $Y=900 $D=1
M213 gnd! 92 116 gnd! NMOS_VTL L=5e-08 W=1.8e-07 AD=1.2285e-13 AS=4.05e-14 PD=1.725e-06 PS=8.1e-07 $X=66850 $Y=8300 $D=1
M214 gnd! 93 117 gnd! NMOS_VTL L=5e-08 W=1.8e-07 AD=1.2285e-13 AS=4.05e-14 PD=1.725e-06 PS=8.1e-07 $X=66850 $Y=15700 $D=1
M215 gnd! 94 118 gnd! NMOS_VTL L=5e-08 W=1.8e-07 AD=1.2285e-13 AS=4.05e-14 PD=1.725e-06 PS=8.1e-07 $X=66850 $Y=23100 $D=1
M216 107 99 gnd! gnd! NMOS_VTL L=5e-08 W=1.8e-07 AD=4.05e-14 AS=1.2285e-13 PD=8.1e-07 PS=1.725e-06 $X=68050 $Y=6470 $D=1
M217 108 100 gnd! gnd! NMOS_VTL L=5e-08 W=1.8e-07 AD=4.05e-14 AS=1.2285e-13 PD=8.1e-07 PS=1.725e-06 $X=68050 $Y=13870 $D=1
M218 109 101 gnd! gnd! NMOS_VTL L=5e-08 W=1.8e-07 AD=4.05e-14 AS=1.2285e-13 PD=8.1e-07 PS=1.725e-06 $X=68050 $Y=21270 $D=1
M219 110 102 gnd! gnd! NMOS_VTL L=5e-08 W=1.8e-07 AD=4.05e-14 AS=1.2285e-13 PD=8.1e-07 PS=1.725e-06 $X=68050 $Y=28670 $D=1
M220 336 200 gnd! gnd! NMOS_VTL L=5e-08 W=1.8e-07 AD=9.855e-14 AS=1.2285e-13 PD=1.455e-06 PS=1.725e-06 $X=68315 $Y=900 $D=1
M221 337 201 gnd! gnd! NMOS_VTL L=5e-08 W=1.8e-07 AD=9.855e-14 AS=1.2285e-13 PD=1.455e-06 PS=1.725e-06 $X=68315 $Y=8300 $D=1
M222 338 202 gnd! gnd! NMOS_VTL L=5e-08 W=1.8e-07 AD=9.855e-14 AS=1.2285e-13 PD=1.455e-06 PS=1.725e-06 $X=68315 $Y=15700 $D=1
M223 339 203 gnd! gnd! NMOS_VTL L=5e-08 W=1.8e-07 AD=9.855e-14 AS=1.2285e-13 PD=1.455e-06 PS=1.725e-06 $X=68315 $Y=23100 $D=1
M224 Sout<8> 188 336 gnd! NMOS_VTL L=5e-08 W=1.8e-07 AD=1.161e-13 AS=9.855e-14 PD=1.65e-06 PS=1.455e-06 $X=69510 $Y=900 $D=1
M225 Sout<10> 189 337 gnd! NMOS_VTL L=5e-08 W=1.8e-07 AD=1.161e-13 AS=9.855e-14 PD=1.65e-06 PS=1.455e-06 $X=69510 $Y=8300 $D=1
M226 Sout<12> 190 338 gnd! NMOS_VTL L=5e-08 W=1.8e-07 AD=1.161e-13 AS=9.855e-14 PD=1.65e-06 PS=1.455e-06 $X=69510 $Y=15700 $D=1
M227 Sout<14> 191 339 gnd! NMOS_VTL L=5e-08 W=1.8e-07 AD=1.161e-13 AS=9.855e-14 PD=1.65e-06 PS=1.455e-06 $X=69510 $Y=23100 $D=1
M228 115 19 Sout<8> gnd! NMOS_VTL L=5e-08 W=1.8e-07 AD=1.26e-13 AS=1.161e-13 PD=1.76e-06 PS=1.65e-06 $X=70900 $Y=900 $D=1
M229 116 85 Sout<10> gnd! NMOS_VTL L=5e-08 W=1.8e-07 AD=1.26e-13 AS=1.161e-13 PD=1.76e-06 PS=1.65e-06 $X=70900 $Y=8300 $D=1
M230 117 84 Sout<12> gnd! NMOS_VTL L=5e-08 W=1.8e-07 AD=1.26e-13 AS=1.161e-13 PD=1.76e-06 PS=1.65e-06 $X=70900 $Y=15700 $D=1
M231 118 86 Sout<14> gnd! NMOS_VTL L=5e-08 W=1.8e-07 AD=1.26e-13 AS=1.161e-13 PD=1.76e-06 PS=1.65e-06 $X=70900 $Y=23100 $D=1
M232 gnd! 99 192 gnd! NMOS_VTL L=5e-08 W=9e-08 AD=5.175e-14 AS=5.175e-14 PD=1.33e-06 PS=1.33e-06 $X=71450 $Y=6760 $D=1
M233 gnd! 100 193 gnd! NMOS_VTL L=5e-08 W=9e-08 AD=5.175e-14 AS=5.175e-14 PD=1.33e-06 PS=1.33e-06 $X=71450 $Y=14160 $D=1
M234 gnd! 101 194 gnd! NMOS_VTL L=5e-08 W=9e-08 AD=5.175e-14 AS=5.175e-14 PD=1.33e-06 PS=1.33e-06 $X=71450 $Y=21560 $D=1
M235 gnd! 102 195 gnd! NMOS_VTL L=5e-08 W=9e-08 AD=5.175e-14 AS=5.175e-14 PD=1.33e-06 PS=1.33e-06 $X=71450 $Y=28960 $D=1
M236 gnd! B<9> 196 gnd! NMOS_VTL L=5e-08 W=9e-08 AD=5.175e-14 AS=5.175e-14 PD=1.33e-06 PS=1.33e-06 $X=75335 $Y=6755 $D=1
M237 gnd! B<11> 197 gnd! NMOS_VTL L=5e-08 W=9e-08 AD=5.175e-14 AS=5.175e-14 PD=1.33e-06 PS=1.33e-06 $X=75335 $Y=14155 $D=1
M238 gnd! B<13> 198 gnd! NMOS_VTL L=5e-08 W=9e-08 AD=5.175e-14 AS=5.175e-14 PD=1.33e-06 PS=1.33e-06 $X=75335 $Y=21555 $D=1
M239 gnd! B<15> 199 gnd! NMOS_VTL L=5e-08 W=9e-08 AD=5.175e-14 AS=5.175e-14 PD=1.33e-06 PS=1.33e-06 $X=75335 $Y=28955 $D=1
M240 200 19 gnd! gnd! NMOS_VTL L=5e-08 W=9e-08 AD=5.175e-14 AS=5.175e-14 PD=1.33e-06 PS=1.33e-06 $X=76065 $Y=795 $D=1
M241 201 85 gnd! gnd! NMOS_VTL L=5e-08 W=9e-08 AD=5.175e-14 AS=5.175e-14 PD=1.33e-06 PS=1.33e-06 $X=76065 $Y=8195 $D=1
M242 202 84 gnd! gnd! NMOS_VTL L=5e-08 W=9e-08 AD=5.175e-14 AS=5.175e-14 PD=1.33e-06 PS=1.33e-06 $X=76065 $Y=15595 $D=1